2024_89_CemigReconfigurationCases/1_AlimsCemig/ESR15/ESR15SegmentosBT.dss
new line.SBT_10764650 bus1=3177287.1.2.0,bus2=3177294.1.2.0,Phases=2,Linecode=BT107_BT107_7_2_1_2,Length=0.040026000,Units=km
new line.SBT_10764741 bus1=3177392.1.2.3.0,bus2=3177399.1.2.3.0,Phases=3,Linecode=BT518_BT518_7_3_1_3,Length=0.000501000,Units=km
new line.SBT_10917768 bus1=3240322.1.2.0,bus2=3240329.1.2.0,Phases=2,Linecode=BT803_BT803_4_2_4_2,Length=0.031901000,Units=km
new line.SBT_10917789 bus1=3240329.1.2.0,bus2=4487162.1.2.0,Phases=2,Linecode=BT808_BT808_4_2_3_2,Length=0.032537000,Units=km
new line.SBT_11803891 bus1=3555357.1.2.3.0,bus2=3555364.1.2.3.0,Phases=3,Linecode=BT810_BT810_4_3_4_3,Length=0.036262000,Units=km
new line.SBT_11803912 bus1=3555364.1.2.3.0,bus2=3555371.1.2.3.0,Phases=3,Linecode=BT810_BT810_4_3_4_3,Length=0.036687000,Units=km
new line.SBT_11803961 bus1=3555490.1.2.3.0,bus2=3555497.1.2.3.0,Phases=3,Linecode=BT810_BT810_4_3_4_3,Length=0.033627000,Units=km
new line.SBT_11803982 bus1=3555483.1.2.3.0,bus2=3555490.1.2.3.0,Phases=3,Linecode=BT810_BT810_4_3_4_3,Length=0.037590000,Units=km
new line.SBT_11804059 bus1=3555343.1.2.3.0,bus2=3555350.1.2.3.0,Phases=3,Linecode=BT803_BT803_4_3_4_3,Length=0.049211000,Units=km
new line.SBT_11804080 bus1=3555336.1.2.3.0,bus2=3555343.1.2.3.0,Phases=3,Linecode=BT803_BT803_4_3_4_3,Length=0.045204000,Units=km
new line.SBT_11804122 bus1=3555336.1.2.3.0,bus2=182439369.1.2.3.0,Phases=3,Linecode=BT803_BT803_4_3_4_3,Length=0.046114000,Units=km
new line.SBT_11804143 bus1=3555322.1.2.3.0,bus2=3555329.1.2.3.0,Phases=3,Linecode=BT803_BT803_4_3_4_3,Length=0.043397000,Units=km
new line.SBT_11804171 bus1=3555315.1.2.3.0,bus2=3555322.1.2.3.0,Phases=3,Linecode=BT803_BT803_4_3_4_3,Length=0.047944000,Units=km
new line.SBT_11804178 bus1=3555308.1.2.3.0,bus2=3555315.1.2.3.0,Phases=3,Linecode=BT518_BT518_7_3_1_3,Length=0.000501000,Units=km
new line.SBT_11804185 bus1=3555315.1.2.3.0,bus2=3555378.1.2.3.0,Phases=3,Linecode=BT803_BT803_4_3_4_3,Length=0.045204000,Units=km
new line.SBT_11804227 bus1=3555378.1.2.3.0,bus2=3555385.1.2.3.0,Phases=3,Linecode=BT803_BT803_4_3_4_3,Length=0.047440000,Units=km
new line.SBT_11804248 bus1=3555385.1.2.3.0,bus2=3555392.1.2.3.0,Phases=3,Linecode=BT810_BT810_4_3_4_3,Length=0.046114000,Units=km
new line.SBT_11804262 bus1=3555392.1.2.3.0,bus2=3555399.1.2.3.0,Phases=3,Linecode=BT810_BT810_4_3_4_3,Length=0.044737000,Units=km
new line.SBT_11804283 bus1=3555434.1.2.3.0,bus2=3555441.1.2.3.0,Phases=3,Linecode=BT810_BT810_4_3_4_3,Length=0.036262000,Units=km
new line.SBT_11804304 bus1=3555427.1.2.3.0,bus2=3555434.1.2.3.0,Phases=3,Linecode=BT810_BT810_4_3_4_3,Length=0.042062000,Units=km
new line.SBT_11804325 bus1=3555420.1.2.3.0,bus2=3555427.1.2.3.0,Phases=3,Linecode=BT803_BT803_4_3_4_3,Length=0.040325000,Units=km
new line.SBT_11804346 bus1=3555413.1.2.3.0,bus2=3555420.1.2.3.0,Phases=3,Linecode=BT803_BT803_4_3_4_3,Length=0.041644000,Units=km
new line.SBT_11804367 bus1=3555280.1.2.3.0,bus2=3555413.1.2.3.0,Phases=3,Linecode=BT803_BT803_4_3_4_3,Length=0.045204000,Units=km
new line.SBT_11804374 bus1=3555273.1.2.3.0,bus2=3555280.1.2.3.0,Phases=3,Linecode=BT513_BT513_7_3_1_3,Length=0.000501000,Units=km
new line.SBT_11804381 bus1=3555280.1.2.3.0,bus2=3555455.1.2.3.0,Phases=3,Linecode=BT803_BT803_4_3_4_3,Length=0.044793000,Units=km
new line.SBT_11804402 bus1=3555455.1.2.3.0,bus2=3555574.1.2.3.0,Phases=3,Linecode=BT810_BT810_4_3_4_3,Length=0.042559000,Units=km
new line.SBT_11804409 bus1=3555455.1.2.3.0,bus2=3555462.1.2.3.0,Phases=3,Linecode=BT803_BT803_4_3_4_3,Length=0.046114000,Units=km
new line.SBT_11804416 bus1=3555455.1.2.3.0,bus2=3555581.1.2.3.0,Phases=3,Linecode=BT810_BT810_4_3_4_3,Length=0.032322000,Units=km
new line.SBT_11804451 bus1=3555462.1.2.3.0,bus2=3555469.1.2.3.0,Phases=3,Linecode=BT803_BT803_4_3_4_3,Length=0.049261000,Units=km
new line.SBT_11804472 bus1=3555469.1.2.3.0,bus2=3555476.1.2.3.0,Phases=3,Linecode=BT810_BT810_4_3_4_3,Length=0.045204000,Units=km
new line.SBT_11804493 bus1=3555476.1.2.3.0,bus2=3555483.1.2.3.0,Phases=3,Linecode=BT810_BT810_4_3_4_3,Length=0.045204000,Units=km
new line.SBT_11804528 bus1=3555525.1.2.3.0,bus2=3555532.1.2.3.0,Phases=3,Linecode=BT810_BT810_4_3_4_3,Length=0.043397000,Units=km
new line.SBT_11804542 bus1=3555518.1.2.3.0,bus2=3555525.1.2.3.0,Phases=3,Linecode=BT810_BT810_4_3_4_3,Length=0.043478000,Units=km
new line.SBT_11804570 bus1=3555511.1.2.3.0,bus2=3555518.1.2.3.0,Phases=3,Linecode=BT810_BT810_4_3_4_3,Length=0.046535000,Units=km
new line.SBT_11804591 bus1=3555504.1.2.3.0,bus2=3555511.1.2.3.0,Phases=3,Linecode=BT803_BT803_4_3_4_3,Length=0.048864000,Units=km
new line.SBT_11804710 bus1=3555266.1.2.3.0,bus2=3555504.1.2.3.0,Phases=3,Linecode=BT803_BT803_4_3_4_3,Length=0.042062000,Units=km
new line.SBT_11804717 bus1=3555259.1.2.3.0,bus2=3555266.1.2.3.0,Phases=3,Linecode=BT518_BT518_7_3_1_3,Length=0.000501000,Units=km
new line.SBT_11804724 bus1=3555266.1.2.3.0,bus2=3555539.1.2.3.0,Phases=3,Linecode=BT803_BT803_4_3_4_3,Length=0.046114000,Units=km
new line.SBT_11804745 bus1=3555539.1.2.3.0,bus2=3555546.1.2.3.0,Phases=3,Linecode=BT803_BT803_4_3_4_3,Length=0.046535000,Units=km
new line.SBT_11804759 bus1=3555546.1.2.3.0,bus2=3555553.1.2.3.0,Phases=3,Linecode=BT810_BT810_4_3_4_3,Length=0.046114000,Units=km
new line.SBT_11804780 bus1=3555553.1.2.3.0,bus2=3555560.1.2.3.0,Phases=3,Linecode=BT810_BT810_4_3_4_3,Length=0.048483000,Units=km
new line.SBT_11804801 bus1=3555560.1.2.3.0,bus2=3555567.1.2.3.0,Phases=3,Linecode=BT810_BT810_4_3_4_3,Length=0.037868000,Units=km
new line.SBT_11804857 bus1=3555441.1.2.3.0,bus2=3555448.1.2.3.0,Phases=3,Linecode=BT810_BT810_4_3_4_3,Length=0.038484000,Units=km
new line.SBT_11804892 bus1=3555399.1.2.3.0,bus2=3555406.1.2.3.0,Phases=3,Linecode=BT810_BT810_4_3_4_3,Length=0.043673000,Units=km
new line.SBT_11804913 bus1=3555406.1.2.3.0,bus2=3636823.1.2.3.0,Phases=3,Linecode=BT810_BT810_4_3_4_3,Length=0.039574000,Units=km
new line.SBT_11930675 bus1=3599975.1.2.0,bus2=3599982.1.2.0,Phases=2,Linecode=BT513_BT513_7_2_1_2,Length=0.000501000,Units=km
new line.SBT_12043872 bus1=3640953.1.2.0,bus2=3640960.1.2.0,Phases=2,Linecode=BT808_BT808_4_2_3_2,Length=0.037067000,Units=km
new line.SBT_12527817 bus1=3941694.1.2.0,bus2=1042112.1.2.0,Phases=2,Linecode=BT801_BT801_4_2_3_2,Length=0.025008000,Units=km
new line.SBT_12527824 bus1=3941694.1.2.0,bus2=1042119.1.2.0,Phases=2,Linecode=BT803_BT803_4_2_4_2,Length=0.011406000,Units=km
new line.SBT_12527831 bus1=3941694.1.2.0,bus2=1042133.1.2.0,Phases=2,Linecode=BT801_BT801_4_2_3_2,Length=0.008605000,Units=km
new line.SBT_12529665 bus1=3943122.1.2.0,bus2=1054852.1.2.0,Phases=2,Linecode=BT803_BT803_4_2_4_2,Length=0.005101000,Units=km
new line.SBT_12532171 bus1=3944690.1.2.0,bus2=3944697.1.2.0,Phases=2,Linecode=BT803_BT803_4_2_4_2,Length=0.012211000,Units=km
new line.SBT_12532213 bus1=3944627.1.2.0,bus2=3944634.1.2.0,Phases=2,Linecode=BT803_BT803_4_2_4_2,Length=0.015817000,Units=km
new line.SBT_12532220 bus1=3944627.1.2.0,bus2=3944662.1.2.0,Phases=2,Linecode=BT803_BT803_4_2_4_2,Length=0.009853000,Units=km
new line.SBT_12532248 bus1=3944662.1.2.0,bus2=3944669.1.2.0,Phases=2,Linecode=BT803_BT803_4_2_4_2,Length=0.011184000,Units=km
new line.SBT_12532304 bus1=3944669.1.2.0,bus2=3944676.1.2.0,Phases=2,Linecode=BT803_BT803_4_2_4_2,Length=0.013043000,Units=km
new line.SBT_12532339 bus1=3944620.1.2.0,bus2=3944627.1.2.0,Phases=2,Linecode=BT803_BT803_4_2_4_2,Length=0.016161000,Units=km
new line.SBT_12532346 bus1=3944620.1.2.0,bus2=3944641.1.2.0,Phases=2,Linecode=BT803_BT803_4_2_4_2,Length=0.008948000,Units=km
new line.SBT_10887920 bus1=3229507.1.2.0,bus2=3229514.1.2.0,Phases=2,Linecode=BT317_BT317_7_2_1_2,Length=0.000501000,Units=km
new line.SBT_11628016 bus1=3495969.1.2.3.0,bus2=3495976.1.2.3.0,Phases=3,Linecode=BT810_BT810_4_3_4_3,Length=0.039864000,Units=km
new line.SBT_11768023 bus1=3544164.1.2.3.0,bus2=3544171.1.2.3.0,Phases=3,Linecode=BT810_BT810_4_3_4_3,Length=0.029027000,Units=km
new line.SBT_11768037 bus1=3544171.1.2.3.0,bus2=3544178.1.2.3.0,Phases=3,Linecode=BT810_BT810_4_3_4_3,Length=0.032461000,Units=km
new line.SBT_11768065 bus1=3544241.1.2.3.0,bus2=3544248.1.2.3.0,Phases=3,Linecode=BT810_BT810_4_3_4_3,Length=0.048617000,Units=km
new line.SBT_11768093 bus1=3544234.1.2.3.0,bus2=3544241.1.2.3.0,Phases=3,Linecode=BT810_BT810_4_3_4_3,Length=0.050227000,Units=km
new line.SBT_11768100 bus1=3544227.1.2.3.0,bus2=3544234.1.2.3.0,Phases=3,Linecode=BT803_BT803_4_3_4_3,Length=0.048183000,Units=km
new line.SBT_11768149 bus1=3544157.1.2.3.0,bus2=3544164.1.2.3.0,Phases=3,Linecode=BT803_BT803_4_3_4_3,Length=0.031027000,Units=km
new line.SBT_11768170 bus1=3544150.1.2.3.0,bus2=3544157.1.2.3.0,Phases=3,Linecode=BT803_BT803_4_3_4_3,Length=0.029079000,Units=km
new line.SBT_11768219 bus1=3544143.1.2.3.0,bus2=3544150.1.2.3.0,Phases=3,Linecode=BT803_BT803_4_3_4_3,Length=0.037229000,Units=km
new line.SBT_11768240 bus1=3544122.1.2.3.0,bus2=3544143.1.2.3.0,Phases=3,Linecode=BT803_BT803_4_3_4_3,Length=0.029557000,Units=km
new line.SBT_11768247 bus1=3544115.1.2.3.0,bus2=3544122.1.2.3.0,Phases=3,Linecode=BT513_BT513_7_3_1_3,Length=0.000501000,Units=km
new line.SBT_11768254 bus1=3544122.1.2.3.0,bus2=3544185.1.2.3.0,Phases=3,Linecode=BT803_BT803_4_3_4_3,Length=0.048390000,Units=km
new line.SBT_11768261 bus1=3544122.1.2.3.0,bus2=3544206.1.2.3.0,Phases=3,Linecode=BT810_BT810_4_3_4_3,Length=0.040806000,Units=km
new line.SBT_11768282 bus1=3544185.1.2.3.0,bus2=3544192.1.2.3.0,Phases=3,Linecode=BT810_BT810_4_3_4_3,Length=0.052411000,Units=km
new line.SBT_11768310 bus1=3544192.1.2.3.0,bus2=3544199.1.2.3.0,Phases=3,Linecode=BT810_BT810_4_3_4_3,Length=0.033388000,Units=km
new line.SBT_11768331 bus1=3544129.1.2.3.0,bus2=3544136.1.2.3.0,Phases=3,Linecode=BT513_BT513_7_3_1_3,Length=0.000501000,Units=km
new line.SBT_11768338 bus1=3544136.1.2.3.0,bus2=3544255.1.2.3.0,Phases=3,Linecode=BT803_BT803_4_3_4_3,Length=0.045193000,Units=km
new line.SBT_11768345 bus1=3544136.1.2.3.0,bus2=3544283.1.2.3.0,Phases=3,Linecode=BT803_BT803_4_3_4_3,Length=0.050495000,Units=km
new line.SBT_11768352 bus1=3544136.1.2.3.0,bus2=4264513.1.2.3.0,Phases=3,Linecode=BT803_BT803_4_3_4_3,Length=0.025029000,Units=km
new line.SBT_11768380 bus1=3544255.1.2.3.0,bus2=3544262.1.2.3.0,Phases=3,Linecode=BT803_BT803_4_3_4_3,Length=0.055993000,Units=km
new line.SBT_11768401 bus1=3544283.1.2.3.0,bus2=3544290.1.2.3.0,Phases=3,Linecode=BT803_BT803_4_3_4_3,Length=0.040325000,Units=km
new line.SBT_11768422 bus1=3544290.1.2.3.0,bus2=3544297.1.2.3.0,Phases=3,Linecode=BT810_BT810_4_3_4_3,Length=0.045138000,Units=km
new line.SBT_11768443 bus1=3544206.1.2.3.0,bus2=3544213.1.2.3.0,Phases=3,Linecode=BT810_BT810_4_3_4_3,Length=0.023203000,Units=km
new line.SBT_11768471 bus1=3544213.1.2.3.0,bus2=3544220.1.2.3.0,Phases=3,Linecode=BT810_BT810_4_3_4_3,Length=0.036248000,Units=km
new line.SBT_11768506 bus1=3544262.1.2.3.0,bus2=3544269.1.2.3.0,Phases=3,Linecode=BT810_BT810_4_3_4_3,Length=0.050137000,Units=km
new line.SBT_11768534 bus1=3544297.1.2.3.0,bus2=3544304.1.2.3.0,Phases=3,Linecode=BT810_BT810_4_3_4_3,Length=0.044927000,Units=km
new line.SBT_11768555 bus1=3544269.1.2.3.0,bus2=3544276.1.2.3.0,Phases=3,Linecode=BT810_BT810_4_3_4_3,Length=0.052858000,Units=km
new line.SBT_11768604 bus1=3544199.1.2.3.0,bus2=4236639.1.2.3.0,Phases=3,Linecode=BT810_BT810_4_3_4_3,Length=0.041051000,Units=km
new line.SBT_12031125 bus1=3636697.1.2.3.0,bus2=3636760.1.2.3.0,Phases=3,Linecode=BT803_BT803_4_3_4_3,Length=0.026009000,Units=km
new line.SBT_12031132 bus1=3636697.1.2.3.0,bus2=3636704.1.2.3.0,Phases=3,Linecode=BT810_BT810_4_3_4_3,Length=0.036633000,Units=km
new line.SBT_12031153 bus1=3636690.1.2.3.0,bus2=3636697.1.2.3.0,Phases=3,Linecode=BT803_BT803_4_3_4_3,Length=0.041124000,Units=km
new line.SBT_12031174 bus1=3636676.1.2.3.0,bus2=3636690.1.2.3.0,Phases=3,Linecode=BT803_BT803_4_3_4_3,Length=0.036810000,Units=km
new line.SBT_12031181 bus1=3636669.1.2.3.0,bus2=3636676.1.2.3.0,Phases=3,Linecode=BT518_BT518_7_3_1_3,Length=0.000501000,Units=km
new line.SBT_12031188 bus1=3636676.1.2.3.0,bus2=3636725.1.2.3.0,Phases=3,Linecode=BT803_BT803_4_3_4_3,Length=0.036891000,Units=km
new line.SBT_12031209 bus1=3636725.1.2.3.0,bus2=3636732.1.2.3.0,Phases=3,Linecode=BT803_BT803_4_3_4_3,Length=0.033983000,Units=km
new line.SBT_12031237 bus1=3636732.1.2.3.0,bus2=3636739.1.2.3.0,Phases=3,Linecode=BT810_BT810_4_3_4_3,Length=0.037496000,Units=km
new line.SBT_12031265 bus1=3636739.1.2.3.0,bus2=3636746.1.2.3.0,Phases=3,Linecode=BT810_BT810_4_3_4_3,Length=0.040126000,Units=km
new line.SBT_12031293 bus1=3636746.1.2.3.0,bus2=3636753.1.2.3.0,Phases=3,Linecode=BT810_BT810_4_3_4_3,Length=0.047535000,Units=km
new line.SBT_12031363 bus1=3636711.1.2.3.0,bus2=3636718.1.2.3.0,Phases=3,Linecode=BT810_BT810_4_3_4_3,Length=0.043027000,Units=km
new line.SBT_12031391 bus1=3636704.1.2.3.0,bus2=3636711.1.2.3.0,Phases=3,Linecode=BT810_BT810_4_3_4_3,Length=0.045711000,Units=km
new line.SBT_12031538 bus1=3636991.1.2.0,bus2=177581304.1.2.0,Phases=2,Linecode=BT807_BT807_4_2_3_2,Length=0.026429000,Units=km
new line.SBT_12031867 bus1=3636984.1.2.0,bus2=3636991.1.2.0,Phases=2,Linecode=BT107_BT107_7_2_1_2,Length=0.056623000,Units=km
new line.SBT_12031902 bus1=3636977.1.2.0,bus2=3636984.1.2.0,Phases=2,Linecode=BT107_BT107_7_2_1_2,Length=0.060848000,Units=km
new line.SBT_12031944 bus1=3636942.1.2.0,bus2=3636977.1.2.0,Phases=2,Linecode=BT107_BT107_7_2_1_2,Length=0.065214000,Units=km
new line.SBT_12031951 bus1=3636935.1.2.0,bus2=3636942.1.2.0,Phases=2,Linecode=BT518_BT518_7_2_1_2,Length=0.000501000,Units=km
new line.SBT_12031958 bus1=3636942.1.2.0,bus2=3636949.1.2.0,Phases=2,Linecode=BT107_BT107_7_2_1_2,Length=0.039065000,Units=km
new line.SBT_12031979 bus1=3636949.1.2.0,bus2=3636956.1.2.0,Phases=2,Linecode=BT107_BT107_7_2_1_2,Length=0.037550000,Units=km
new line.SBT_12032014 bus1=3636956.1.2.0,bus2=3636963.1.2.0,Phases=2,Linecode=BT808_BT808_4_2_3_2,Length=0.081428000,Units=km
new line.SBT_12032056 bus1=3636963.1.2.0,bus2=3636970.1.2.0,Phases=2,Linecode=BT107_BT107_7_2_1_2,Length=0.030243000,Units=km
new line.SBT_12032924 bus1=3636823.1.2.3.0,bus2=3636830.1.2.3.0,Phases=3,Linecode=BT810_BT810_4_3_4_3,Length=0.040039000,Units=km
new line.SBT_12032959 bus1=3636830.1.2.3.0,bus2=5211326.1.2.3.0,Phases=3,Linecode=BT810_BT810_4_3_4_3,Length=0.051438000,Units=km
new line.SBT_12032987 bus1=5211326.1.2.3.0,bus2=5211319.1.2.3.0,Phases=3,Linecode=BT810_BT810_4_3_4_3,Length=0.041245000,Units=km
new line.SBT_12032994 bus1=5211326.1.2.0,bus2=4384017.1.2.0,Phases=2,Linecode=BT808_BT808_4_2_3_2,Length=0.048349000,Units=km
new line.SBT_12033015 bus1=3636809.1.2.3.0,bus2=3636816.1.2.3.0,Phases=3,Linecode=BT518_BT518_7_3_1_3,Length=0.000501000,Units=km
new line.SBT_12842838 bus1=160197990.1.2.0,bus2=4037923.1.2.0,Phases=2,Linecode=BT807_BT807_4_2_3_2,Length=0.029421000,Units=km
new line.SBT_12842845 bus1=4037916.1.2.0,bus2=160197990.1.2.0,Phases=2,Linecode=BT513_BT513_7_2_1_2,Length=0.000501000,Units=km
new line.SBT_12843713 bus1=4038182.1.2.0,bus2=4038189.1.2.0,Phases=2,Linecode=BT518_BT518_7_2_1_2,Length=0.000501000,Units=km
new line.SBT_12532367 bus1=3944641.1.2.0,bus2=3944648.1.2.0,Phases=2,Linecode=BT803_BT803_4_2_4_2,Length=0.009853000,Units=km
new line.SBT_12532381 bus1=3944648.1.2.0,bus2=3944655.1.2.0,Phases=2,Linecode=BT803_BT803_4_2_4_2,Length=0.013606000,Units=km
new line.SBT_12540151 bus1=3950164.1.2.3.0,bus2=3950171.1.2.3.0,Phases=3,Linecode=BT517_BT809_5_3_1_3,Length=0.015270000,Units=km
new line.SBT_12540172 bus1=3950171.1.2.3.0,bus2=3950178.1.2.3.0,Phases=3,Linecode=BT517_BT809_5_3_1_3,Length=0.021409000,Units=km
new line.SBT_12540900 bus1=5302956.1.2.0,bus2=975199.1.2.0,Phases=2,Linecode=BT807_BT807_4_2_3_2,Length=0.036687000,Units=km
new line.SBT_12540921 bus1=3950437.1.2.0,bus2=3950416.1.2.0,Phases=2,Linecode=BT807_BT807_4_2_3_2,Length=0.034897000,Units=km
new line.SBT_12889255 bus1=4046190.1.2.0,bus2=4046197.1.2.0,Phases=2,Linecode=BT518_BT518_7_2_1_2,Length=0.000501000,Units=km
new line.SBT_13355721 bus1=4263554.1.2.0,bus2=4263561.1.2.0,Phases=2,Linecode=BT808_BT808_4_2_3_2,Length=0.042027000,Units=km
new line.SBT_13485256 bus1=4253313.1.2.0,bus2=4253320.1.2.0,Phases=2,Linecode=BT808_BT808_4_2_3_2,Length=0.045292000,Units=km
new line.SBT_13485291 bus1=4253306.1.2.0,bus2=4253313.1.2.0,Phases=2,Linecode=BT808_BT808_4_2_3_2,Length=0.041607000,Units=km
new line.SBT_13485298 bus1=4253306.1.2.0,bus2=4253327.1.2.0,Phases=2,Linecode=BT807_BT807_4_2_3_2,Length=0.035522000,Units=km
new line.SBT_13485305 bus1=4253306.1.2.0,bus2=4431344.1.2.0,Phases=2,Linecode=BT808_BT808_4_2_3_2,Length=0.030077000,Units=km
new line.SBT_13485354 bus1=4253208.1.2.0,bus2=4253306.1.2.0,Phases=2,Linecode=BT807_BT807_4_2_3_2,Length=0.032151000,Units=km
new line.SBT_13485361 bus1=4253201.1.2.0,bus2=4253208.1.2.0,Phases=2,Linecode=BT518_BT518_7_2_1_2,Length=0.000501000,Units=km
new line.SBT_13485368 bus1=4253208.1.2.0,bus2=4253355.1.2.0,Phases=2,Linecode=BT807_BT807_4_2_3_2,Length=0.040324000,Units=km
new line.SBT_13485592 bus1=4253327.1.2.0,bus2=4253334.1.2.0,Phases=2,Linecode=BT808_BT808_4_2_3_2,Length=0.037349000,Units=km
new line.SBT_13485613 bus1=4253334.1.2.0,bus2=4253341.1.2.0,Phases=2,Linecode=BT808_BT808_4_2_3_2,Length=0.041208000,Units=km
new line.SBT_13485627 bus1=4253341.1.2.0,bus2=4253348.1.2.0,Phases=2,Linecode=BT808_BT808_4_2_3_2,Length=0.039332000,Units=km
new line.SBT_13485662 bus1=4253355.1.2.0,bus2=4253376.1.2.0,Phases=2,Linecode=BT808_BT808_4_2_3_2,Length=0.039332000,Units=km
new line.SBT_13485683 bus1=4253376.1.2.0,bus2=4253383.1.2.0,Phases=2,Linecode=BT808_BT808_4_2_3_2,Length=0.044422000,Units=km
new line.SBT_13485711 bus1=4253383.1.2.0,bus2=4253397.1.2.0,Phases=2,Linecode=BT808_BT808_4_2_3_2,Length=0.040324000,Units=km
new line.SBT_13485774 bus1=4253460.1.2.0,bus2=4253467.1.2.0,Phases=2,Linecode=BT807_BT807_4_2_3_2,Length=0.036358000,Units=km
new line.SBT_13485823 bus1=4253467.1.2.0,bus2=4253474.1.2.0,Phases=2,Linecode=BT807_BT807_4_2_3_2,Length=0.036233000,Units=km
new line.SBT_13485851 bus1=4253474.1.2.0,bus2=4253481.1.2.0,Phases=2,Linecode=BT807_BT807_4_2_3_2,Length=0.036358000,Units=km
new line.SBT_13485900 bus1=4253516.1.2.0,bus2=4253523.1.2.0,Phases=2,Linecode=BT807_BT807_4_2_3_2,Length=0.034246000,Units=km
new line.SBT_13485914 bus1=4253586.1.2.0,bus2=178261004.1.2.0,Phases=2,Linecode=BT808_BT808_4_2_3_2,Length=0.040324000,Units=km
new line.SBT_13485928 bus1=4253495.1.2.0,bus2=4253502.1.2.0,Phases=2,Linecode=BT807_BT807_4_2_3_2,Length=0.039217000,Units=km
new line.SBT_13485935 bus1=4253488.1.2.0,bus2=4253495.1.2.0,Phases=2,Linecode=BT518_BT518_7_2_1_2,Length=0.000501000,Units=km
new line.SBT_13485942 bus1=4253495.1.2.0,bus2=4253509.1.2.0,Phases=2,Linecode=BT807_BT807_4_2_3_2,Length=0.037026000,Units=km
new line.SBT_13485963 bus1=4253509.1.2.0,bus2=4253642.1.2.0,Phases=2,Linecode=BT807_BT807_4_2_3_2,Length=0.035914000,Units=km
new line.SBT_13486131 bus1=4253600.1.2.0,bus2=4253586.1.2.0,Phases=2,Linecode=BT807_BT807_4_2_3_2,Length=0.044298000,Units=km
new line.SBT_13486145 bus1=4253614.1.2.0,bus2=4253600.1.2.0,Phases=2,Linecode=BT807_BT807_4_2_3_2,Length=0.044298000,Units=km
new line.SBT_13486180 bus1=4253642.1.2.0,bus2=4253649.1.2.0,Phases=2,Linecode=BT808_BT808_4_2_3_2,Length=0.035914000,Units=km
new line.SBT_13486201 bus1=4253649.1.2.0,bus2=4253656.1.2.0,Phases=2,Linecode=BT808_BT808_4_2_3_2,Length=0.036413000,Units=km
new line.SBT_13486222 bus1=4253656.1.2.0,bus2=4253663.1.2.0,Phases=2,Linecode=BT808_BT808_4_2_3_2,Length=0.041775000,Units=km
new line.SBT_13486250 bus1=4253838.1.2.0,bus2=4253866.1.2.0,Phases=2,Linecode=BT808_BT808_4_2_3_2,Length=0.037375000,Units=km
new line.SBT_13486257 bus1=4253838.1.2.0,bus2=4253845.1.2.0,Phases=2,Linecode=BT807_BT807_4_2_3_2,Length=0.037349000,Units=km
new line.SBT_13486271 bus1=4253677.1.2.0,bus2=4253838.1.2.0,Phases=2,Linecode=BT807_BT807_4_2_3_2,Length=0.041450000,Units=km
new line.SBT_13486278 bus1=4253670.1.2.0,bus2=4253677.1.2.0,Phases=2,Linecode=BT518_BT518_7_2_1_2,Length=0.000501000,Units=km
new line.SBT_13486285 bus1=4253677.1.2.0,bus2=124249603.1.2.0,Phases=2,Linecode=BT807_BT807_4_2_3_2,Length=0.020255000,Units=km
new line.SBT_13486299 bus1=4253831.1.2.0,bus2=4253873.1.2.0,Phases=2,Linecode=BT807_BT807_4_2_3_2,Length=0.037960000,Units=km
new line.SBT_13486334 bus1=4253845.1.2.0,bus2=4253852.1.2.0,Phases=2,Linecode=BT807_BT807_4_2_3_2,Length=0.038222000,Units=km
new line.SBT_13486341 bus1=4253852.1.2.0,bus2=4253859.1.2.0,Phases=2,Linecode=BT807_BT807_4_2_3_2,Length=0.032260000,Units=km
new line.SBT_13486376 bus1=4253873.1.2.0,bus2=4253880.1.2.0,Phases=2,Linecode=BT808_BT808_4_2_3_2,Length=0.045895000,Units=km
new line.SBT_13486397 bus1=4253880.1.2.0,bus2=4254027.1.2.0,Phases=2,Linecode=BT808_BT808_4_2_3_2,Length=0.026315000,Units=km
new line.SBT_13486404 bus1=4253880.1.2.0,bus2=4254034.1.2.0,Phases=2,Linecode=BT808_BT808_4_2_3_2,Length=0.036067000,Units=km
new line.SBT_13486411 bus1=4253880.1.2.0,bus2=4254195.1.2.0,Phases=2,Linecode=BT808_BT808_4_2_3_2,Length=0.044926000,Units=km
new line.SBT_13486467 bus1=4254195.1.2.0,bus2=4254202.1.2.0,Phases=2,Linecode=BT808_BT808_4_2_3_2,Length=0.038288000,Units=km
new line.SBT_13486922 bus1=4254139.1.2.0,bus2=4254146.1.2.0,Phases=2,Linecode=BT808_BT808_4_2_3_2,Length=0.033147000,Units=km
new line.SBT_13486943 bus1=4254132.1.2.0,bus2=4254139.1.2.0,Phases=2,Linecode=BT808_BT808_4_2_3_2,Length=0.030276000,Units=km
new line.SBT_13486964 bus1=4254125.1.2.0,bus2=4254132.1.2.0,Phases=2,Linecode=BT807_BT807_4_2_3_2,Length=0.032291000,Units=km
new line.SBT_13486978 bus1=4254062.1.2.0,bus2=4254125.1.2.0,Phases=2,Linecode=BT807_BT807_4_2_3_2,Length=0.041123000,Units=km
new line.SBT_13486985 bus1=4254055.1.2.0,bus2=4254062.1.2.0,Phases=2,Linecode=BT518_BT518_7_2_1_2,Length=0.000501000,Units=km
new line.SBT_13486992 bus1=4254062.1.2.0,bus2=4254111.1.2.0,Phases=2,Linecode=BT807_BT807_4_2_3_2,Length=0.047450000,Units=km
new line.SBT_13487020 bus1=4254111.1.2.0,bus2=4254118.1.2.0,Phases=2,Linecode=BT807_BT807_4_2_3_2,Length=0.048099000,Units=km
new line.SBT_13487076 bus1=4254174.1.2.0,bus2=4254181.1.2.0,Phases=2,Linecode=BT808_BT808_4_2_3_2,Length=0.038483000,Units=km
new line.SBT_13487083 bus1=4254174.1.2.0,bus2=4254188.1.2.0,Phases=2,Linecode=BT808_BT808_4_2_3_2,Length=0.041450000,Units=km
new line.SBT_13487097 bus1=4254167.1.2.0,bus2=4254174.1.2.0,Phases=2,Linecode=BT808_BT808_4_2_3_2,Length=0.034143000,Units=km
new line.SBT_10899652 bus1=3234267.1.2.0,bus2=3234274.1.2.0,Phases=2,Linecode=BT505_BT505_7_2_1_2,Length=0.000501000,Units=km
new line.SBT_10910152 bus1=183022400.1.2.3.0,bus2=2831949.1.2.3.0,Phases=3,Linecode=BT803_BT803_4_3_4_3,Length=0.034796000,Units=km
new line.SBT_10910180 bus1=5101342.1.2.3.0,bus2=183022400.1.2.3.0,Phases=3,Linecode=BT803_BT803_4_3_4_3,Length=0.032568000,Units=km
new line.SBT_10910215 bus1=176890616.1.2.3.0,bus2=5101342.1.2.3.0,Phases=3,Linecode=BT803_BT803_4_3_4_3,Length=0.051368000,Units=km
new line.SBT_10910236 bus1=3294810.1.2.3.0,bus2=176890616.1.2.3.0,Phases=3,Linecode=BT809_BT809_4_3_4_3,Length=0.039636000,Units=km
new line.SBT_10911237 bus1=3295118.1.2.3.0,bus2=1133448.1.2.3.0,Phases=3,Linecode=BT803_BT803_4_3_4_3,Length=0.034071000,Units=km
new line.SBT_11445764 bus1=3427747.1.2.0,bus2=3427754.1.2.0,Phases=2,Linecode=BT518_BT518_7_2_1_2,Length=0.000501000,Units=km
new line.SBT_13070191 bus1=4078628.1.2.3.0,bus2=153433334.1.2.3.0,Phases=3,Linecode=BT810_BT810_4_3_4_3,Length=0.045414000,Units=km
new line.SBT_13070212 bus1=4078635.1.2.3.0,bus2=4078628.1.2.3.0,Phases=3,Linecode=BT810_BT810_4_3_4_3,Length=0.044423000,Units=km
new line.SBT_13070226 bus1=4231116.1.2.3.0,bus2=4078635.1.2.3.0,Phases=3,Linecode=BT803_BT803_4_3_4_3,Length=0.033388000,Units=km
new line.SBT_13232703 bus1=4126039.1.2.0,bus2=4603726.1.2.0,Phases=2,Linecode=BT801_BT801_4_2_3_2,Length=0.050505000,Units=km
new line.SBT_13232738 bus1=4126046.1.2.0,bus2=4126039.1.2.0,Phases=2,Linecode=BT801_BT801_4_2_3_2,Length=0.050505000,Units=km
new line.SBT_13232766 bus1=4126081.1.2.0,bus2=4126046.1.2.0,Phases=2,Linecode=BT801_BT801_4_2_3_2,Length=0.044423000,Units=km
new line.SBT_13232787 bus1=4126074.1.2.0,bus2=4126081.1.2.0,Phases=2,Linecode=BT801_BT801_4_2_3_2,Length=0.051369000,Units=km
new line.SBT_13232815 bus1=4126067.1.2.0,bus2=4126074.1.2.0,Phases=2,Linecode=BT801_BT801_4_2_3_2,Length=0.045557000,Units=km
new line.SBT_13232843 bus1=4126060.1.2.0,bus2=4126067.1.2.0,Phases=2,Linecode=BT808_BT808_4_2_3_2,Length=0.050505000,Units=km
new line.SBT_13232850 bus1=4126053.1.2.0,bus2=4126060.1.2.0,Phases=2,Linecode=BT517_BT517_7_2_1_2,Length=0.000501000,Units=km
new line.SBT_13232857 bus1=4126060.1.2.0,bus2=4126088.1.2.0,Phases=2,Linecode=BT808_BT808_4_2_3_2,Length=0.044298000,Units=km
new line.SBT_13232878 bus1=4126088.1.2.0,bus2=4126095.1.2.0,Phases=2,Linecode=BT801_BT801_4_2_3_2,Length=0.051496000,Units=km
new line.SBT_13232906 bus1=4126095.1.2.0,bus2=4126102.1.2.0,Phases=2,Linecode=BT801_BT801_4_2_3_2,Length=0.034378000,Units=km
new line.SBT_13450914 bus1=4229667.1.2.0,bus2=4229674.1.2.0,Phases=2,Linecode=BT808_BT808_4_2_3_2,Length=0.053055000,Units=km
new line.SBT_13453063 bus1=4231123.1.2.3.0,bus2=4231116.1.2.3.0,Phases=3,Linecode=BT803_BT803_4_3_4_3,Length=0.032400000,Units=km
new line.SBT_13453091 bus1=4231130.1.2.3.0,bus2=4231123.1.2.3.0,Phases=3,Linecode=BT803_BT803_4_3_4_3,Length=0.036358000,Units=km
new line.SBT_13453119 bus1=4231137.1.2.3.0,bus2=4231130.1.2.3.0,Phases=3,Linecode=BT803_BT803_4_3_4_3,Length=0.042453000,Units=km
new line.SBT_13454288 bus1=4236639.1.2.3.0,bus2=4236646.1.2.3.0,Phases=3,Linecode=BT810_BT810_4_3_4_3,Length=0.037013000,Units=km
new line.SBT_13454358 bus1=4236751.1.2.0,bus2=4236758.1.2.0,Phases=2,Linecode=BT808_BT808_4_2_3_2,Length=0.032027000,Units=km
...
